/*--------------------------------*- C++ -*----------------------------------*\
| =========                 |                                                 |
| \\      /  F ield         | OpenFOAM: The Open Source CFD Toolbox           |
|  \\    /   O peration     | Version:  v2206                                 |
|   \\  /    A nd           | Website:  www.openfoam.com                      |
|    \\/     M anipulation  |                                                 |
\*---------------------------------------------------------------------------*/
FoamFile
{
    version     2.0;
    format      ascii;
    class       dictionary;
    object      dynamicMeshDict;
}
// * * * * * * * * * * * * * * * * * * * * * * * * * * * * * * * * * * * * * //

dynamicFvMesh   dynamicMotionSolverFvMesh;

motionSolverLibs ("libfvMotionSolvers.so");

solver displacementLaplacian;

displacementLaplacianCoeffs
{
    diffusivity     inverseDistance (flatplate);
}
    flatplate
    {
        type            solidBodyMotionDisplacement;
        solidBodyMotionFunction tabulated6DoFMotion;
        tabulated6DoFMotionCoeffs
        {
            timeDataFileName "$FOAM_CASE/constant/flatplate30.dat";
            CofG (0 0 0);
        }
    }


// ************************************************************************* //
